VALLEY
ZOMBIE
PERIOD
AFFORD
FLYING
ALTRAP
XLDAMP
TSTATS
KILLER
ROLLER
BRIDGE
BOOKER
IFOOPS
ISOUTS
WINGER
WINKER
SPOUTS
JOUSTS
JACKER
SPIKER
KIDKID
POLLED
SPOTSD
BLASTD
FINGER
ROLLED
THINGS
GRINCH
ICEICE
TWINCE
DODGER
JACKET
ZOMBIE
SSSSSS
CARROT
BASKET
WRONGS
GOTCHA
THERMO
TGHOST
TSTORE